# created with PyMOL 2.5.7
@<TRIPOS>MOLECULE
C16
99 98 1                 
SMALL
USER_CHARGES
@<TRIPOS>ATOM
1	   N	-20.912	-8.638	-41.375	N.3	1	C16448	0.000	
2	  CA	-21.884	-8.159	-40.407	C.3	1	C16448	0.000	
3	   C	-21.566	-6.756	-39.916	C.3	1	C16448	0.000	
4	   O	-22.478	-5.985	-39.596	O.3	1	C16448	0.000	
5	  CB	-21.964	-9.130	-39.233	C.3	1	C16448	0.000	
6	   P	-20.400	-10.631	-37.797	P.3	1	C16448	0.000	
7	  C1	-19.177	-9.509	-35.747	C.3	1	C16448	0.000	
8	  N1	-17.336	-10.607	-31.655	N.3	1	C16448	0.000	
9	  O1	-20.706	-9.288	-38.619	O.3	1	C16448	0.000	
10	  C2	-18.059	-9.934	-34.807	C.3	1	C16448	0.000	
11	  N2	-13.516	-13.416	-30.598	N.3	1	C16448	0.000	
12	  O2	-21.560	-10.964	-36.884	O.co2	1	C16448	0.000	
13	  C3	-18.079	-11.441	-34.651	C.3	1	C16448	0.000	
14	  O3	-20.113	-11.768	-38.750	O.co2	1	C16448	0.000	
15	  C4	-16.733	-9.479	-35.401	C.3	1	C16448	0.000	
16	  O4	-19.091	-10.299	-36.934	O.3	1	C16448	0.000	
17	  C5	-18.285	-9.275	-33.449	C.3	1	C16448	0.000	
18	  O5	-19.530	-9.732	-32.893	O.3	1	C16448	0.000	
19	  C6	-17.173	-9.561	-32.474	C.3	1	C16448	0.000	
20	  O6	-16.247	-8.778	-32.357	O.3	1	C16448	0.000	
21	  C7	-16.327	-10.999	-30.687	C.3	1	C16448	0.000	
22	  O7	-14.712	-12.319	-29.043	O.3	1	C16448	0.000	
23	  C8	-15.282	-11.935	-31.309	C.3	1	C16448	0.000	
24	  O8	-10.978	-12.548	-27.285	O.3	1	C16448	0.000	
25	  C9	-14.467	-12.565	-30.216	C.3	1	C16448	0.000	
26	 C10	-12.648	-14.122	-29.665	C.3	1	C16448	0.000	
27	 C11	-11.196	-13.678	-29.805	C.3	1	C16448	0.000	
28	 C12	-11.003	-11.810	-28.260	C.3	1	C16448	0.000	
29	 C13	-10.902	-10.317	-28.103	C.3	1	C16448	0.000	
30	 C14	-11.219	-9.666	-29.441	C.3	1	C16448	0.000	
31	 C15	-12.287	-8.604	-29.236	C.3	1	C16448	0.000	
32	 C16	-11.727	-7.221	-29.529	C.3	1	C16448	0.000	
33	 C17	-12.199	-6.713	-30.887	C.3	1	C16448	0.000	
34	 C18	-13.713	-6.904	-31.051	C.3	1	C16448	0.000	
35	 C19	-14.241	-6.169	-32.272	C.3	1	C16448	0.000	
36	 C20	-13.204	-6.094	-33.389	C.3	1	C16448	0.000	
37	 C21	-13.828	-6.433	-34.741	C.3	1	C16448	0.000	
38	 C22	-12.731	-6.573	-35.794	C.3	1	C16448	0.000	
39	 C23	-13.214	-7.352	-37.008	C.3	1	C16448	0.000	
40	 C24	-13.265	-6.454	-38.239	C.3	1	C16448	0.000	
41	 C25	-11.874	-5.920	-38.577	C.3	1	C16448	0.000	
42	 C26	-11.944	-4.953	-39.756	C.3	1	C16448	0.000	
43	 C27	-10.564	-4.544	-40.220	C.3	1	C16448	0.000	
44	   S	-11.062	-12.262	-29.510	S.3	1	C16448	0.000	
45	   H	-20.359	-9.440	-41.077	 H	1	C16448	0.000	
46	  HA	-22.858	-8.115	-40.906	 H	1	C16448	0.000	
47	 HB2	-22.683	-8.762	-38.491	 H	1	C16448	0.000	
48	 HB3	-22.330	-10.096	-39.579	 H	1	C16448	0.000	
49	  H1	-20.129	-9.683	-35.272	 H	1	C16448	0.000	
50	  H2	-19.102	-8.472	-35.978	 H	1	C16448	0.000	
51	  H3	-17.918	-11.902	-35.604	 H	1	C16448	0.000	
52	  H4	-19.023	-11.752	-34.261	 H	1	C16448	0.000	
53	  H5	-17.299	-11.744	-33.977	 H	1	C16448	0.000	
54	  H6	-16.583	-9.950	-36.354	 H	1	C16448	0.000	
55	  H7	-15.933	-9.762	-34.735	 H	1	C16448	0.000	
56	  H8	-16.731	-8.423	-35.523	 H	1	C16448	0.000	
57	  H9	-18.312	-8.217	-33.602	 H	1	C16448	0.000	
58	 H10	-19.489	-10.690	-32.756	 H	1	C16448	0.000	
59	 H11	-18.164	-11.126	-31.719	 H	1	C16448	0.000	
60	 H12	-16.810	-11.503	-29.879	 H	1	C16448	0.000	
61	 H13	-15.825	-10.119	-30.340	 H	1	C16448	0.000	
62	 H14	-14.652	-11.373	-31.951	 H	1	C16448	0.000	
63	 H15	-15.784	-12.697	-31.873	 H	1	C16448	0.000	
64	 H16	-13.393	-13.575	-31.561	 H	1	C16448	0.000	
65	 H17	-12.711	-15.164	-29.865	 H	1	C16448	0.000	
66	 H18	-12.979	-13.897	-28.676	 H	1	C16448	0.000	
67	 H19	-10.872	-13.853	-30.812	 H	1	C16448	0.000	
68	 H20	-10.606	-14.236	-29.116	 H	1	C16448	0.000	
69	 H21	-11.602	-9.979	-27.362	 H	1	C16448	0.000	
70	 H22	-9.910	-10.044	-27.793	 H	1	C16448	0.000	
71	 H23	-10.340	-9.221	-29.849	 H	1	C16448	0.000	
72	 H24	-11.577	-10.408	-30.130	 H	1	C16448	0.000	
73	 H25	-13.106	-8.800	-29.899	 H	1	C16448	0.000	
74	 H26	-12.609	-8.640	-28.216	 H	1	C16448	0.000	
75	 H27	-12.055	-6.547	-28.765	 H	1	C16448	0.000	
76	 H28	-10.658	-7.289	-29.549	 H	1	C16448	0.000	
77	 H29	-11.979	-5.667	-30.963	 H	1	C16448	0.000	
78	 H30	-11.707	-7.273	-31.653	 H	1	C16448	0.000	
79	 H31	-13.919	-7.954	-31.155	 H	1	C16448	0.000	
80	 H32	-14.195	-6.508	-30.180	 H	1	C16448	0.000	
81	 H33	-15.101	-6.695	-32.638	 H	1	C16448	0.000	
82	 H34	-14.484	-5.180	-31.974	 H	1	C16448	0.000	
83	 H35	-12.806	-5.096	-33.421	 H	1	C16448	0.000	
84	 H36	-12.436	-6.800	-33.180	 H	1	C16448	0.000	
85	 H37	-14.365	-7.358	-34.661	 H	1	C16448	0.000	
86	 H38	-14.491	-5.647	-35.034	 H	1	C16448	0.000	
87	 H39	-12.425	-5.591	-36.110	 H	1	C16448	0.000	
88	 H40	-11.912	-7.099	-35.357	 H	1	C16448	0.000	
89	 H41	-12.548	-8.160	-37.187	 H	1	C16448	0.000	
90	 H42	-14.195	-7.725	-36.811	 H	1	C16448	0.000	
91	 H43	-13.911	-5.627	-38.039	 H	1	C16448	0.000	
92	 H44	-13.613	-7.032	-39.061	 H	1	C16448	0.000	
93	 H45	-11.480	-5.405	-37.726	 H	1	C16448	0.000	
94	 H46	-11.246	-6.744	-38.848	 H	1	C16448	0.000	
95	 H47	-12.458	-5.425	-40.560	 H	1	C16448	0.000	
96	 H48	-12.462	-4.065	-39.430	 H	1	C16448	0.000	
97	 H49	-10.026	-5.413	-40.545	 H	1	C16448	0.000	
98	 H50	-10.040	-4.082	-39.406	 H	1	C16448	0.000	
99	 H51	-10.655	-3.850	-41.029	 H	1	C16448	0.000	
@<TRIPOS>BOND
1 1 2 1
2 1 45 1
3 2 3 1
4 2 5 1
5 2 46 1
6 3 4 1
7 5 9 1
8 5 47 1
9 5 48 1
10 6 9 1
11 6 12 1
12 6 14 1
13 6 16 1
14 7 10 1
15 7 16 1
16 7 49 1
17 7 50 1
18 8 19 1
19 8 21 1
20 8 59 1
21 10 13 1
22 10 15 1
23 10 17 1
24 11 25 1
25 11 26 1
26 11 64 1
27 13 51 1
28 13 52 1
29 13 53 1
30 15 54 1
31 15 55 1
32 15 56 1
33 17 18 1
34 17 19 1
35 17 57 1
36 18 58 1
37 19 20 1
38 21 23 1
39 21 60 1
40 21 61 1
41 22 25 1
42 23 25 1
43 23 62 1
44 23 63 1
45 24 28 1
46 26 27 1
47 26 65 1
48 26 66 1
49 27 44 1
50 27 67 1
51 27 68 1
52 28 29 1
53 28 44 1
54 29 30 1
55 29 69 1
56 29 70 1
57 30 31 1
58 30 71 1
59 30 72 1
60 31 32 1
61 31 73 1
62 31 74 1
63 32 33 1
64 32 75 1
65 32 76 1
66 33 34 1
67 33 77 1
68 33 78 1
69 34 35 1
70 34 79 1
71 34 80 1
72 35 36 1
73 35 81 1
74 35 82 1
75 36 37 1
76 36 83 1
77 36 84 1
78 37 38 1
79 37 85 1
80 37 86 1
81 38 39 1
82 38 87 1
83 38 88 1
84 39 40 1
85 39 89 1
86 39 90 1
87 40 41 1
88 40 91 1
89 40 92 1
90 41 42 1
91 41 93 1
92 41 94 1
93 42 43 1
94 42 95 1
95 42 96 1
96 43 97 1
97 43 98 1
98 43 99 1
@<TRIPOS>SUBSTRUCTURE
1	C16448	1	GROUP	1 ****	C16
